data13.m
%% BUSDATA & LINEDATA for 13-bus ill-conditioned system %%
busdata =[1.0000    1.0000    1.0000    1.6500    0.5600         0         0         0         0         0;
          2.0000    2.0000    1.0000         0         0         0         0         0         0         0;
          3.0000    2.0000    1.0000         0         0         0         0         0         0         0;
          4.0000    2.0000    1.0000         0         0         0         0         0         0         0;
          5.0000    3.0000    1.0000         0         0         0         0         0         0         0;
          6.0000    3.0000    1.0370    0.0500    0.0300    0.5000         0         0         0         0;
          7.0000    3.0000    1.0630         0         0         0         0         0         0         0;
          8.0000    3.0000    1.1000         0         0         0         0         0         0         0;
          9.0000    3.0000    0.9430         0         0    0.5000         0         0         0         0;
         10.0000    3.0000    1.1000         0         0         0         0         0         0         0;
         11.0000    2.0000    1.0000    0.0500    0.0320         0         0         0         0         0;
         12.0000    2.0000    1.0000    0.0500    0.0320         0         0         0         0         0;
         13.0000    2.0000    1.0000         0         0         0         0         0         0         0];


linedata =[1.0000    1.0000    2.0000    0.0040    0.0850         0    1.0500;
           2.0000    1.0000    3.0000    0.0040    0.0947         0    1.1000;
           3.0000    5.0000    4.0000    0.0040    0.0947         0    1.1000;
           4.0000    4.0000    3.0000    0.0074    0.1430    0.2180    1.0000;
           5.0000    6.0000    2.0000    0.0481    0.4590    0.1230    1.0000;
           6.0000    6.0000    7.0000    0.0090    0.1080    0.0080    1.0000;
           7.0000    8.0000    3.0000    0.0121    0.2330    0.3560    1.0000;
           8.0000    7.0000    8.0000         0    0.1500         0    1.0000;
           9.0000    9.0000   10.0000    0.0105    0.2020    0.3100    1.0000;
          10.0000   10.0000   11.0000         0   -0.1500         0    1.0000;
          11.0000   11.0000   12.0000    0.0086    0.1665    0.2900    1.0000;
          12.0000   12.0000   13.0000    0.0075    0.1465    0.2240    1.0000;
          13.0000   13.0000    8.0000         0   -0.1500         0    1.0000];